dssdata/Grid_D_fx/dss_7Line.dss
New Line.fxx913_line_0		bus1=fxx913_0		bus2=fxx913_1		emergamps=500		normamps=450		len=1		r1=0.2268175		x1=0.1663612		c1=96.49120113		phases=3		units=m		enabled=TRUE		
New Line.fxx913_line_1		bus1=fxx913_1		bus2=fxx913_2		emergamps=500		normamps=450		len=1		r1=0.09099604		x1=0.0641487		c1=37.74074176		phases=3		units=m		enabled=TRUE		
New Line.fxx913_line_2		bus1=fxx913_2		bus2=fxx913_3		emergamps=500		normamps=450		len=1		r1=0.21677877		x1=0.13265139		c1=2.59775358		phases=3		units=m		enabled=TRUE		
New Line.fxx913_line_3		bus1=fxx913_3		bus2=fxx913_4		emergamps=500		normamps=450		len=1		r1=0.11596395		x1=0.07036506		c1=1.06683005		phases=3		units=m		enabled=TRUE		
New Line.fxx913_line_4		bus1=fxx913_4		bus2=fxx913_5		emergamps=500		normamps=450		len=1		r1=0.03970037		x1=0.02427251		c1=0.4742988		phases=3		units=m		enabled=TRUE		
New Line.fxx913_line_5		bus1=fxx913_5		bus2=fxx913_6		emergamps=500		normamps=450		len=1		r1=0.3896966		x1=0.21627654		c1=2.74261944		phases=3		units=m		enabled=TRUE		
New Line.fxx913_line_6		bus1=fxx913_3		bus2=fxx913_7		emergamps=500		normamps=450		len=1		r1=0.03122208		x1=0.01009615		c1=0		phases=3		units=m		enabled=TRUE		
New Line.fxx913_line_7		bus1=fxx913_7		bus2=fxx913_8		emergamps=500		normamps=450		len=1		r1=0.12580508		x1=0.09300101		c1=2.61355939		phases=3		units=m		enabled=TRUE		
New Line.fxx913_line_8		bus1=fxx913_7		bus2=fxx913_9		emergamps=500		normamps=450		len=1		r1=0.25389794		x1=0.12331758		c1=2.4359618		phases=3		units=m		enabled=TRUE		
New Line.fxx913_line_9		bus1=fxx913_8		bus2=fxx913_10		emergamps=500		normamps=450		len=1		r1=0.32152843		x1=0.14584391		c1=2.57355053		phases=3		units=m		enabled=TRUE		
New Line.fxx913_line_10		bus1=fxx913_9		bus2=fxx913_11		emergamps=500		normamps=450		len=1		r1=0.32134967		x1=0.11654791		c1=0.74673125		phases=3		units=m		enabled=TRUE		
New Line.fxx913_line_11		bus1=fxx913_10		bus2=fxx913_12		emergamps=500		normamps=450		len=1		r1=0.0237312		x1=0.02662554		c1=1.12009688		phases=3		units=m		enabled=TRUE		
New Line.fxx913_line_12		bus1=fxx913_11		bus2=fxx913_13		emergamps=500		normamps=450		len=1		r1=0.08925062		x1=0.04698581		c1=0.37336563		phases=3		units=m		enabled=TRUE		
New Line.fxx913_line_13		bus1=fxx913_11		bus2=fxx913_14		emergamps=500		normamps=450		len=1		r1=0.03512255		x1=0.01539635		c1=0		phases=3		units=m		enabled=TRUE		
New Line.fxx913_line_14		bus1=fxx913_11		bus2=fxx913_15		emergamps=500		normamps=450		len=1		r1=0.10489892		x1=0.07662648		c1=2.11573855		phases=3		units=m		enabled=TRUE		
New Line.fxx913_line_15		bus1=fxx913_10		bus2=fxx913_16		emergamps=500		normamps=450		len=1		r1=0.0079104		x1=0.00887518		c1=0.37336563		phases=3		units=m		enabled=TRUE		
New Line.fxx913_line_16		bus1=fxx913_15		bus2=fxx913_17		emergamps=500		normamps=450		len=1		r1=0.02159616		x1=0.00946691		c1=0		phases=3		units=m		enabled=TRUE		
New Line.fxx913_line_17		bus1=fxx913_17		bus2=fxx913_18		emergamps=500		normamps=450		len=1		r1=0.24810286		x1=0.1378516		c1=3.40571679		phases=3		units=m		enabled=TRUE		
New Line.fxx913_line_18		bus1=fxx913_17		bus2=fxx913_19		emergamps=500		normamps=450		len=1		r1=0.04424169		x1=0.01430624		c1=0		phases=3		units=m		enabled=TRUE		
New Line.fxx913_line_19		bus1=fxx913_19		bus2=fxx913_20		emergamps=500		normamps=450		len=1		r1=0.27449855		x1=0.15512733		c1=29.77428289		phases=3		units=m		enabled=TRUE		
New Line.fxx913_line_20		bus1=fxx913_19		bus2=fxx913_21		emergamps=500		normamps=450		len=1		r1=0.15740797		x1=0.07687046		c1=1.53490609		phases=3		units=m		enabled=TRUE		
New Line.fxx913_line_21		bus1=fxx913_21		bus2=fxx913_22		emergamps=500		normamps=450		len=1		r1=0.08545004		x1=0.03386756		c1=0		phases=3		units=m		enabled=TRUE		
New Line.fxx913_line_22		bus1=fxx913_21		bus2=fxx913_23		emergamps=500		normamps=450		len=1		r1=0.06244416		x1=0.0201923		c1=0		phases=3		units=m		enabled=TRUE		
New Line.fxx913_line_23		bus1=fxx913_23		bus2=fxx913_24		emergamps=500		normamps=450		len=1		r1=0.2268175		x1=0.1663612		c1=96.49120113		phases=3		units=m		enabled=TRUE		
New Line.fxx913_line_24		bus1=fxx913_23		bus2=fxx913_25		emergamps=500		normamps=450		len=1		r1=0.09099604		x1=0.0641487		c1=37.74074176		phases=3		units=m		enabled=TRUE		
New Line.fxx913_line_25		bus1=fxx913_23		bus2=fxx913_26		emergamps=500		normamps=450		len=1		r1=0.21677877		x1=0.13265139		c1=2.59775358		phases=3		units=m		enabled=TRUE		
New Line.fxx913_line_26		bus1=fxx913_9		bus2=fxx913_27		emergamps=500		normamps=450		len=1		r1=0.11596395		x1=0.07036506		c1=1.06683005		phases=3		units=m		enabled=TRUE		
New Line.fxx913_line_27		bus1=fxx913_27		bus2=fxx913_28		emergamps=500		normamps=450		len=1		r1=0.03970037		x1=0.02427251		c1=0.4742988		phases=3		units=m		enabled=TRUE		
New Line.fxx913_line_28		bus1=fxx913_28		bus2=fxx913_29		emergamps=500		normamps=450		len=1		r1=0.3896966		x1=0.21627654		c1=2.74261944		phases=3		units=m		enabled=TRUE		
New Line.fxx913_line_29		bus1=fxx913_29		bus2=fxx913_30		emergamps=500		normamps=450		len=1		r1=0.03122208		x1=0.01009615		c1=0		phases=3		units=m		enabled=TRUE		
New Line.fxx913_line_30		bus1=fxx913_30		bus2=fxx913_31		emergamps=500		normamps=450		len=1		r1=0.12580508		x1=0.09300101		c1=2.61355939		phases=3		units=m		enabled=TRUE		
New Line.fxx913_line_31		bus1=fxx913_31		bus2=fxx913_32		emergamps=500		normamps=450		len=1		r1=0.25389794		x1=0.12331758		c1=2.4359618		phases=3		units=m		enabled=TRUE		
New Line.fxx913_line_32		bus1=fxx913_32		bus2=fxx913_33		emergamps=500		normamps=450		len=1		r1=0.32152843		x1=0.14584391		c1=2.57355053		phases=3		units=m		enabled=TRUE		
New Line.fxx913_line_33		bus1=fxx913_33		bus2=fxx913_34		emergamps=500		normamps=450		len=1		r1=0.32134967		x1=0.11654791		c1=0.74673125		phases=3		units=m		enabled=TRUE		
New Line.fxx913_line_34		bus1=fxx913_34		bus2=fxx913_35		emergamps=500		normamps=450		len=1		r1=0.0237312		x1=0.02662554		c1=1.12009688		phases=3		units=m		enabled=TRUE		
New Line.fxx913_line_35		bus1=fxx913_35		bus2=fxx913_36		emergamps=500		normamps=450		len=1		r1=0.08925062		x1=0.04698581		c1=0.37336563		phases=3		units=m		enabled=TRUE		
New Line.fxx913_line_36		bus1=fxx913_31		bus2=fxx913_37		emergamps=500		normamps=450		len=1		r1=0.03512255		x1=0.01539635		c1=0		phases=3		units=m		enabled=TRUE		
New Line.fxx913_line_37		bus1=fxx913_37		bus2=fxx913_38		emergamps=500		normamps=450		len=1		r1=0.10489892		x1=0.07662648		c1=2.11573855		phases=3		units=m		enabled=TRUE		
New Line.fxx913_line_38		bus1=fxx913_38		bus2=fxx913_39		emergamps=500		normamps=450		len=1		r1=0.0079104		x1=0.00887518		c1=0.37336563		phases=3		units=m		enabled=TRUE		
New Line.fxx913_line_39		bus1=fxx913_39		bus2=fxx913_40		emergamps=500		normamps=450		len=1		r1=0.02159616		x1=0.00946691		c1=0		phases=3		units=m		enabled=TRUE		
New Line.fxx913_line_40		bus1=fxx913_40		bus2=fxx913_41		emergamps=500		normamps=450		len=1		r1=0.24810286		x1=0.1378516		c1=3.40571679		phases=3		units=m		enabled=TRUE		
New Line.fxx913_line_41		bus1=fxx913_41		bus2=fxx913_42		emergamps=500		normamps=450		len=1		r1=0.04424169		x1=0.01430624		c1=0		phases=3		units=m		enabled=TRUE		
New Line.fxx913_line_42		bus1=fxx913_42		bus2=fxx913_43		emergamps=500		normamps=450		len=1		r1=0.27449855		x1=0.15512733		c1=29.77428289		phases=3		units=m		enabled=TRUE		
New Line.fxx913_line_43		bus1=fxx913_43		bus2=fxx913_44		emergamps=500		normamps=450		len=1		r1=0.15740797		x1=0.07687046		c1=1.53490609		phases=3		units=m		enabled=TRUE		
New Line.fxx913_line_44		bus1=fxx913_44		bus2=fxx913_45		emergamps=500		normamps=450		len=1		r1=0.08545004		x1=0.03386756		c1=0		phases=3		units=m		enabled=TRUE		
New Line.fxx913_line_45		bus1=fxx913_45		bus2=fxx913_46		emergamps=500		normamps=450		len=1		r1=0.06244416		x1=0.0201923		c1=0		phases=3		units=m		enabled=TRUE		
New Line.fxx913_line_46		bus1=fxx913_46		bus2=fxx913_47		emergamps=500		normamps=450		len=1		r1=0.2268175		x1=0.1663612		c1=96.49120113		phases=3		units=m		enabled=TRUE		
New Line.fxx913_line_47		bus1=fxx913_47		bus2=fxx913_48		emergamps=500		normamps=450		len=1		r1=0.09099604		x1=0.0641487		c1=37.74074176		phases=3		units=m		enabled=TRUE		
New Line.fxx913_line_48		bus1=fxx913_48		bus2=fxx913_49		emergamps=500		normamps=450		len=1		r1=0.21677877		x1=0.13265139		c1=2.59775358		phases=3		units=m		enabled=TRUE		
New Line.fxx913_line_49		bus1=fxx913_49		bus2=fxx913_50		emergamps=500		normamps=450		len=1		r1=0.11596395		x1=0.07036506		c1=1.06683005		phases=3		units=m		enabled=TRUE		
